Circuit: * C:\Users\cdude\University of Cape Town\EEE3088F - General\Assignment2\PowerSim\Power Submodule.asc

Direct Newton iteration failed to find .op point.  (Use ".option noopiter" to skip.)
Starting Gmin stepping
Gmin = 10
Gmin = 1.07374
Gmin = 0.115292
Gmin = 0.0123794
Gmin = 0.00132923
Gmin = 0.000142725
Gmin = 1.5325e-005
Gmin = 1.6455e-006
Gmin = 1.76685e-007
Gmin = 1.89714e-008
Gmin = 2.03704e-009
Gmin = 2.18725e-010
Gmin = 2.34854e-011
Gmin = 2.52173e-012
Gmin = 2.70769e-013
Gmin = 0
Gmin stepping succeeded in finding the operating point.

Ignoring empty pin current: Ix(u1:9)
Ignoring empty pin current: Ix(u1:12)
Ignoring empty pin current: Ix(u1:15)
Ignoring empty pin current: Ix(u1:16)
Ignoring empty pin current: Ix(u1:23)
Ignoring empty pin current: Ix(u1:25)
Ignoring empty pin current: Ix(u1:27)
Ignoring empty pin current: Ix(u1:29)
Ignoring empty pin current: Ix(u1:31)
Ignoring empty pin current: Ix(u1:33)
Ignoring empty pin current: Ix(u1:35)
Ignoring empty pin current: Ix(u1:9)
Ignoring empty pin current: Ix(u1:12)
Ignoring empty pin current: Ix(u1:15)
Ignoring empty pin current: Ix(u1:16)
Ignoring empty pin current: Ix(u1:23)
Ignoring empty pin current: Ix(u1:25)
Ignoring empty pin current: Ix(u1:27)
Ignoring empty pin current: Ix(u1:29)
Ignoring empty pin current: Ix(u1:31)
Ignoring empty pin current: Ix(u1:33)
Ignoring empty pin current: Ix(u1:35)
Heightened Def Con from 3.63521e-005 to 3.63521e-005
Heightened Def Con from 0.000781893 to 0.000781897
Heightened Def Con from 0.00197237 to 0.00197237

Date: Thu May 13 15:10:43 2021
Total elapsed time: 15.820 seconds.

tnom = 27
temp = 27
method = modified trap
totiter = 876114
traniter = 875584
tranpoints = 227991
accept = 165917
rejected = 62077
matrix size = 160
fillins = 30
solver = Normal
Thread vector: 13.1/7.6[4] 45.2/6.0[4] 1.5/1.4[1] 0.3/0.7[1]  2592/500
Matrix Compiler1: 6.73 KB object code size  1.8/1.2/[0.5]
Matrix Compiler2: 10.45 KB object code size  1.0/2.0/[0.5]

